tests/data/power_flow/pandapower-asymmetric-sym_load/asym_output.json
{
  "line": [
    {
      "id": 3,
      "p_from": [
        3355.570599154589,
        3355.5705991545888,
        3355.570599154573
      ],
      "q_from": [
        -114802.31402761377,
        -114802.31402761376,
        -114802.31402761373
      ],
      "i_from": [
        18.945558350925413,
        18.945558350925413,
        18.945558350925413
      ],
      "p_to": [
        -3333.3333328177127,
        -3333.333332817713,
        -3333.3333328177127
      ],
      "q_to": [
        -666.6666662563717,
        -666.6666662563704,
        -666.6666662563727
      ],
      "i_to": [
        0.5605853454053236,
        0.5605853454053236,
        0.5605853454053236
      ]
    }
  ],
  "node": [
    {
      "id": 1,
      "u_pu": [
        1.0,
        0.9999999999999999,
        0.9999999999999999
      ],
      "u": [
        6062.177826491071,
        6062.17782649107,
        6062.17782649107
      ],
      "u_angle": [
        1.0683267737006009e-32,
        -2.0943951023931953,
        2.0943951023931953
      ]
    },
    {
      "id": 2,
      "u_pu": [
        1.000287870831679,
        1.000287870831679,
        1.000287870831679
      ],
      "u": [
        6063.922950663768,
        6063.922950663768,
        6063.922950663768
      ],
      "u_angle": [
        -0.0004064136661921455,
        -2.0948015160593876,
        2.093988688727003
      ]
    }
  ],
  "sym_load": [
    {
      "id": 6,
      "p": [
        3333.3333333333335,
        3333.3333333333335,
        3333.3333333333335
      ],
      "q": [
        666.6666666666666,
        666.6666666666666,
        666.6666666666666
      ]
    },
    {
      "id": 7,
      "p": [
        0.0,
        0.0,
        0.0
      ],
      "q": [
        0.0,
        0.0,
        0.0
      ]
    }
  ]
}