tests/data/power_flow/pandapower-asymmetric-sym_load/pgm_asym_output.json
{
  "line": [
    {
      "id": 3,
      "energized": 1,
      "loading": 0.018945558350859888,
      "p_from": [
        3355.570599656667,
        3355.5705996353063,
        3355.5705996573533
      ],
      "q_from": [
        -114802.31402720205,
        -114802.3140271999,
        -114802.31402715709
      ],
      "i_from": [
        18.945558350859887,
        18.94555835085943,
        18.94555835085248
      ],
      "s_from": [
        114851.34374507594,
        114851.34374507316,
        114851.343745031
      ],
      "p_to": [
        -3333.3333333390897,
        -3333.3333333164296,
        -3333.3333333299493
      ],
      "q_to": [
        -666.6666666731289,
        -666.6666666716966,
        -666.6666667080381
      ],
      "i_to": [
        0.5605853455031138,
        0.5605853454994031,
        0.560585345502765
      ],
      "s_to": [
        3399.3463424021015,
        3399.3463423796006,
        3399.346342399985
      ]
    }
  ],
  "node": [
    {
      "id": 1,
      "energized": 1,
      "u_pu": [
        1.0000000000000036,
        1.0000000000000036,
        1.0000000000000033
      ],
      "u": [
        6062.177826491094,
        6062.177826491094,
        6062.177826491092
      ],
      "u_angle": [
        -4.456669330443493e-16,
        -2.094395102393196,
        2.094395102393195
      ]
    },
    {
      "id": 2,
      "energized": 1,
      "u_pu": [
        1.0002878708316767,
        1.000287870831677,
        1.0002878708316763
      ],
      "u": [
        6063.922950663756,
        6063.922950663758,
        6063.922950663753
      ],
      "u_angle": [
        -0.00040641366619250215,
        -2.094801516059388,
        2.0939886887270034
      ]
    }
  ],
  "source": [
    {
      "id": 4,
      "energized": 1,
      "p": [
        2998.231638950951,
        9100.884988767146,
        5519.329153568693
      ],
      "q": [
        -119314.25846189508,
        -120484.76600691375,
        -111193.37281918703
      ],
      "i": [
        19.687961489866478,
        19.931450515578394,
        18.364731915241673
      ],
      "s": [
        119351.92359267907,
        120827.99736534376,
        111330.2706060313
      ],
      "pf": [
        0.025120932689641707,
        0.07532099502774253,
        0.04957617657375643
      ]
    }
  ],
  "sym_load": [
    {
      "id": 6,
      "energized": 1,
      "p": [
        3333.333333333333,
        3333.333333333333,
        3333.333333333333
      ],
      "q": [
        666.6666666666666,
        666.6666666666666,
        666.6666666666666
      ],
      "i": [
        0.5605853455019741,
        0.5605853455019738,
        0.5605853455019743
      ],
      "s": [
        3399.34634239519,
        3399.34634239519,
        3399.34634239519
      ],
      "pf": [
        0.9805806756909201,
        0.9805806756909201,
        0.9805806756909201
      ]
    },
    {
      "id": 7,
      "energized": 1,
      "p": [
        -0.0,
        -0.0,
        -0.0
      ],
      "q": [
        -0.0,
        -0.0,
        -0.0
      ],
      "i": [
        0.0,
        0.0,
        0.0
      ],
      "s": [
        0.0,
        0.0,
        0.0
      ],
      "pf": [
        0.0,
        0.0,
        0.0
      ]
    }
  ]
}